/*--------------------------------*- C++ -*----------------------------------*\
| =========                 |                                                 |
| \\      /  F ield         | OpenFOAM: The Open Source CFD Toolbox           |
|  \\    /   O peration     | Version:  5                                     |
|   \\  /    A nd           | Web:      www.OpenFOAM.org                      |
|    \\/     M anipulation  |                                                 |
\*---------------------------------------------------------------------------*/
FoamFile
{
    version     2.0;
    format      ascii;
    class       dictionary;
    location    "system";
    object      fvSchemes;
}
// * * * * * * * * * * * * * * * * * * * * * * * * * * * * * * * * * * * * * //

ddtSchemes
{
    default         Euler;
}

gradSchemes
{
    default         Gauss linear;

    limited         cellLimited leastSquares 0.5;

    grad(U)         $limited;
    grad(k)         $limited;
    grad(epsilon)   $limited;
}

divSchemes
{
    default         none;

    div(phi,U)      Gauss limitedLinearV 1;

    energy          Gauss linearUpwind limited;
    div(phi,e)      $energy;
    div(phi,K)      $energy;
    div(phi,Ekp)    $energy;

    turbulence      Gauss linearUpwind limited;
    div(phi,k)      $turbulence;
    div(phi,epsilon)  $turbulence;

    div(phiv,p)     Gauss upwind;
    div(phid,p)     Gauss upwind;
    div((phi|interpolate(rho)),p) Gauss upwind;

    div(((rho*nuEff)*dev2(T(grad(U))))) Gauss linear;
    div(phi,(p|rho))    Gauss upwind;
}

laplacianSchemes
{
    default         Gauss linear limited 0.33;
}

interpolationSchemes
{
    default         linear;
}

snGradSchemes
{
    default         limited 0.33;
}

wallDist
{
    method          meshWave;
}


// ************************************************************************* //
