/*--------------------------------*- C++ -*----------------------------------*\
| =========                 |                                                 |
| \\      /  F ield         | OpenFOAM: The Open Source CFD Toolbox           |
|  \\    /   O peration     | Version:  5                                     |
|   \\  /    A nd           | Web:      www.OpenFOAM.org                      |
|    \\/     M anipulation  |                                                 |
\*---------------------------------------------------------------------------*/
FoamFile
{
    version     2.0;
    format      ascii;
    class       volScalarField;
    location    "0";
    object      epsilon;
}
// * * * * * * * * * * * * * * * * * * * * * * * * * * * * * * * * * * * * * //

dimensions      [0 2 -3 0 0 0 0];

internalField   uniform 266000;

boundaryField
{
    inlet
    {
        type            fixedValue;
        value           uniform 266000;
    }

    outlet
    {
        type            inletOutlet;
        inletValue      uniform 266000;
        value           uniform 266000;
    }

    bottom
    {
        type            inletOutlet;
        inletValue      uniform 266000;
        value           uniform 266000;
    }

    top
    {
        type            inletOutlet;
        inletValue      uniform 266000;
        value           uniform 266000;
    }

    left
    {
        type            inletOutlet;
        inletValue      uniform 266000;
        value           uniform 266000;
    }
    
    right  
    {
        type            inletOutlet;
        inletValue      uniform 266000;
        value           uniform 266000;
    }

    bump
    {
        type            epsilonWallFunction;
        value           uniform 266000;
    }

    plate
    {
        type            epsilonWallFunction;
        value           uniform 266000;
    }
}


// ************************************************************************* //