/*--------------------------------*- C++ -*----------------------------------*\
  =========                 |
  \\      /  F ield         | OpenFOAM: The Open Source CFD Toolbox
   \\    /   O peration     | Website:  https://openfoam.org
    \\  /    A nd           | Version:  10
     \\/     M anipulation  |
\*---------------------------------------------------------------------------*/
FoamFile
{
    format      ascii;
    class       volScalarField;
    location    "0";
    object      epsilon;
}
// * * * * * * * * * * * * * * * * * * * * * * * * * * * * * * * * * * * * * //

dimensions      [0 2 -3 0 0 0 0];

// epsilon value from https://www.simscale.com/docs/simulation-setup/global-settings/k-epsilon/
// mixing length (l) = 0.07 * 1 * scaleFactor
// epsilon = 0.164 * k**1.5 / mixing length
internalField   uniform 193.7;

boundaryField
{
    inlet
    {
        type            turbulentMixingLengthDissipationRateInlet;
        mixingLength    0.042;
        value           $internalField;
    }
    // inlet
    // {
    //     type            fixedValue;
    //     value           $internalField;
    // }

    outlet
    {
        type            zeroGradient;
    }

    bottom
    {
        type            zeroGradient;
    }

    // bottom, outlet
    // {
    //     type            inletOutlet;
    //     inletValue      $internalField;
    //     value           $internalField;
    // }

    top
    {
        type            symmetryPlane;
    }

    left
    {
        type            symmetryPlane;
    }
    
    right  
    {
        type            symmetryPlane;
    }

    bump
    {
        type            epsilonWallFunction;
        value           $internalField;
    }

    plate
    {
        type            epsilonWallFunction;
        value           $internalField;
    }
}


// ************************************************************************* //