/*--------------------------------*- C++ -*----------------------------------*\
  =========                 |
  \\      /  F ield         | OpenFOAM: The Open Source CFD Toolbox
   \\    /   O peration     | Website:  https://openfoam.org
    \\  /    A nd           | Version:  10
     \\/     M anipulation  |
\*---------------------------------------------------------------------------*/
FoamFile
{
    format      ascii;
    class       volScalarField;
    location    "0";
    object      k;
}
// * * * * * * * * * * * * * * * * * * * * * * * * * * * * * * * * * * * * * //

dimensions      [0 2 -2 0 0 0 0];

// k = 1.5 * (U * I) ^ 2
// I = 0.5%
// from https://www.simscale.com/docs/simulation-setup/global-settings/k-epsilon/
internalField   uniform 13.5;

boundaryField
{
    inlet
    {
        type            turbulentIntensityKineticEnergyInlet;
        intensity       0.005;
        value           $internalField;
    }
    // inlet
    // {
    //     type            fixedValue;
    //     value           $internalField;
    // }

    outlet
    {
        type            zeroGradient;
    }

    bottom
    {
        type            zeroGradient;
    }

    // bottom, outlet
    // {
    //     type            inletOutlet;
    //     inletValue      $internalField;
    //     value           $internalField;
    // }

    top
    {
        type            symmetryPlane;
    }
 
    left
    {
        type            symmetryPlane;
    }
    
    right
    {
        type            symmetryPlane;
    }

    bump
    {
        type            kqRWallFunction;
        value           $internalField;
    }

    plate
    {
        type            kqRWallFunction;
        value           $internalField;
    }
}


// ************************************************************************* //