/*--------------------------------*- C++ -*----------------------------------*\
  =========                 |
  \\      /  F ield         | OpenFOAM: The Open Source CFD Toolbox
   \\    /   O peration     | Website:  https://openfoam.org
    \\  /    A nd           | Version:  10
     \\/     M anipulation  |
\*---------------------------------------------------------------------------*/
FoamFile
{
    format      ascii;
    class       volScalarField;
    location    "0";
    object      nut;
}
// * * * * * * * * * * * * * * * * * * * * * * * * * * * * * * * * * * * * * //

dimensions      [0 2 -1 0 0 0 0];

internalField   uniform 0;

boundaryField
{
    inlet
    {
        type            calculated;
        value           $internalField;
    }

    outlet
    {
        type            calculated;
        value           $internalField;
    }

    bottom
    {
        type            calculated;
        value           $internalField;
    }

    top
    {
        type            symmetryPlane;
    }

    left
    {
        type            symmetryPlane;
    }

    right
    {
        type            symmetryPlane;
    }

    bump
    {
        type            nutkWallFunction;
        value           $internalField;
    }

    plate
    {
        type            nutkWallFunction;
        value           $internalField;
    }
}

// ************************************************************************* //
