/*--------------------------------*- C++ -*----------------------------------*\
  =========                 |
  \\      /  F ield         | OpenFOAM: The Open Source CFD Toolbox
   \\    /   O peration     | Website:  https://openfoam.org
    \\  /    A nd           | Version:  10
     \\/     M anipulation  |
\*---------------------------------------------------------------------------*/
FoamFile
{
    format      ascii;
    class       volScalarField;
    object      T;
}
// * * * * * * * * * * * * * * * * * * * * * * * * * * * * * * * * * * * * * //

dimensions      [0 0 0 1 0 0 0];

#include "ICnBC"
internalField   uniform $Temperature;

boundaryField
{
    inlet
    {
        type            fixedValue;
        value           uniform $Temperature;
    }

    outlet
    {
        type            zeroGradient;      
    }

    bottom
    {
        type            zeroGradient;  
    }

    top
    {
        type            symmetryPlane; 
    }

    left
    {
        type            symmetryPlane;  
    }

    right
    {
        type            symmetryPlane;  
    }

    bump
    {
        type            zeroGradient;
    }

    plate
    {
        type            zeroGradient;
    }

  
}

// ************************************************************************* //
