/*--------------------------------*- C++ -*----------------------------------*\
  =========                 |
  \\      /  F ield         | OpenFOAM: The Open Source CFD Toolbox
   \\    /   O peration     | Website:  https://openfoam.org
    \\  /    A nd           | Version:  10
     \\/     M anipulation  |
\*---------------------------------------------------------------------------*/
FoamFile
{
    format      ascii;
    class       volVectorField;
    object      U;
}
// * * * * * * * * * * * * * * * * * * * * * * * * * * * * * * * * * * * * * //

dimensions      [0 1 -1 0 0 0 0];

#include "ICnBC"
V               ($Vx $Vy $Vz);
internalField   uniform $V;

boundaryField
{
    inlet
    {
        type            fixedValue;
        value           uniform $V;

    }

    // outlet
    // {
    //     type            inletOutlet;
    //     value           $internalField;
    //     inletValue      uniform (0 0 0);
    // }
    outlet
    {
        type            zeroGradient;
    }

    top
    {
        type            symmetryPlane;  
    }

    bottom
    {
        type            slip;
    }

    left
    {
        type            symmetryPlane;  
    }

    right
    {
        type            symmetryPlane;  
    }

    bump
    {
        type            noSlip;
    }

    plate
    {
        type            noSlip;
    }
}

// ************************************************************************* //
