/*--------------------------------*- C++ -*----------------------------------*\
| =========                 |                                                 |
| \\      /  F ield         | OpenFOAM: The Open Source CFD Toolbox           |
|  \\    /   O peration     | Version:  5                                     |
|   \\  /    A nd           | Web:      www.OpenFOAM.org                      |
|    \\/     M anipulation  |                                                 |
\*---------------------------------------------------------------------------*/
FoamFile
{
    version     2.0;
    format      ascii;
    class       volVectorField;
    object      U;
}
// * * * * * * * * * * * * * * * * * * * * * * * * * * * * * * * * * * * * * //

dimensions      [0 1 -1 0 0 0 0];

#include "ICnBC"
V               ($Vx $Vy $Vz);
internalField   uniform $V ;

boundaryField
{
    inlet
    {
        type            fixedValue;
        value           $internalField;

    }

    outlet
    {
        type            inletOutlet;
        value           $internalField;
        inletValue      uniform (0 0 0);
    }

    top
    {
        type            symmetryPlane;  
    }

    bottom
    {
        type            slip;
    }

    left
    {
        type            symmetryPlane;  
    }

    right
    {
        type            symmetryPlane;  
    }

    bump
    {
        type            noSlip;
    }

    plate
    {
        type            noSlip;
    }
}

// ************************************************************************* //
