/*--------------------------------*- C++ -*----------------------------------*\
  =========                 |
  \\      /  F ield         | OpenFOAM: The Open Source CFD Toolbox
   \\    /   O peration     | Website:  https://openfoam.org
    \\  /    A nd           | Version:  10
     \\/     M anipulation  |
\*---------------------------------------------------------------------------*/
FoamFile
{
    format      ascii;
    class       dictionary;
    location    "system";
    object      fvSchemes;
}
// * * * * * * * * * * * * * * * * * * * * * * * * * * * * * * * * * * * * * //

ddtSchemes
{
    default         Euler;
}

gradSchemes
{
    default             none;

    gradScheme          Gauss linear;
    grad(p)             $gradScheme;
    grad(U)             $gradScheme;
    grad(h)             $gradScheme;
    grad(K)             $gradScheme;
    grad(phi)           $gradScheme;
    grad((rho*rAU))     $gradScheme;
    grad(magSqr((rho_0*U_0)))   $gradScheme;
    grad(magSqr(HbyA))  $gradScheme;
    grad(rho)           $gradScheme;
    grad(thermo:psi)    $gradScheme;   

    gradSchemeCell      cellLimited Gauss linear 1;   
    grad(epsilon)       $gradSchemeCell;   
    grad(k)             $gradSchemeCell;
}

divSchemes
{
    default             none;
    div(phi,U)          Gauss limitedLinearV 1;
    div(((rho*nuEff)*dev2(T(grad(U))))) Gauss linear;
    div(phi,K)          Gauss limitedLinear 1;
    div(phi,h)          Gauss limitedLinear 1;
    div(phid,p)         Gauss limitedLinear 1;
    div(phi,epsilon)    Gauss linearUpwind grad(epsilon);
    div(phi,k)          Gauss linearUpwind grad(k);
}

laplacianSchemes
{
    default         Gauss linear corrected;
}

interpolationSchemes
{
    default         limitedLinear phi 1.0;
}

snGradSchemes
{
    default         corrected;
}

wallDist
{
    method          meshWave;
}


// ************************************************************************* //
