/*--------------------------------*- C++ -*----------------------------------*\
|                                                                             |
|    HiSA: High Speed Aerodynamic solver                                      |
|    Copyright (C) 2014-2017 Johan Heyns - CSIR, South Africa                 |
|    Copyright (C) 2014-2017 Oliver Oxtoby - CSIR, South Africa               |
|                                                                             |
\*---------------------------------------------------------------------------*/
FoamFile
{
    version     2.0;
    format      ascii;
    class       volScalarField;
    location    "0";
    object      k;
}
// * * * * * * * * * * * * * * * * * * * * * * * * * * * * * * * * * * * * * //

#include        "include/freestreamConditions"

dimensions      [0 2 -2 0 0 0 0];

// internalField   uniform 1.08e-1;  // = 3/2*(I*|U|)^2 for I = 0.001 below, U = 268, but should not matter
internalField   uniform $k;

boundaryField
{
    wall
    {
        type            kqRWallFunction;
        value           uniform 1e-11;
    }

    freestream
    {
        type            turbulentIntensityKineticEnergyInlet; // Acts as zeroGrad for outflow
        intensity       0.001; // 0.1% turbulence intensity
        value           $internalField;
    }

    bottom
    {
        type            symmetry;
        value           uniform 0;
    }
}


// ************************************************************************* //
