/*--------------------------------*- C++ -*----------------------------------*\
|                                                                             |
|    HiSA: High Speed Aerodynamic solver                                      |
|    Copyright (C) 2014-2017 Johan Heyns - CSIR, South Africa                 |
|    Copyright (C) 2014-2017 Oliver Oxtoby - CSIR, South Africa               |
|                                                                             |
\*---------------------------------------------------------------------------*/
FoamFile
{
    version         2.0;
    format          ascii;
    class           volScalarField;
    object          T;
}
// * * * * * * * * * * * * * * * * * * * * * * * * * * * * * * * * * * * * * //

#include        "include/freestreamConditions"

dimensions      [0 0 0 1 0 0 0];

internalField   uniform $T;

boundaryField
{
    wall
    {
        type            characteristicWallTemperature;
        value           $internalField;
    }
    freestream
    {
        type            characteristicFarfieldTemperature;
        #include        "include/freestreamConditions"
        U               ($Ux 0 0);
        value           $internalField;
    }
    bottom
    {
        type            symmetry;
        value           $internalField;
    }
}


// ************************************************************************* //
