/*--------------------------------*- C++ -*----------------------------------*\
|                                                                             |
|    HiSA: High Speed Aerodynamic solver                                      |
|    Copyright (C) 2014-2017 Johan Heyns - CSIR, South Africa                 |
|    Copyright (C) 2014-2017 Oliver Oxtoby - CSIR, South Africa               |
|                                                                             |
\*---------------------------------------------------------------------------*/
FoamFile
{
    version         2.0;
    format          ascii;
    class           volVectorField;
    object          U;
}
// * * * * * * * * * * * * * * * * * * * * * * * * * * * * * * * * * * * * * //

#include        "include/freestreamConditions"

dimensions      [0 1 -1 0 0 0 0];

internalField   uniform ($Ux 0 0);

boundaryField
{
    wall
    {
        type            boundaryCorrectedFixedValue;
        value           uniform (0 0 0);
    }
    freestream
    {
        type            characteristicFarfieldVelocity;
        #include        "include/freestreamConditions"
        U               ($Ux 0 0);              
        value           $internalField;
    }
    bottom
    {
        type            symmetry;
        value           $internalField;
    }
}


// ************************************************************************* //
